data_100_4
_audit_creation_date              2018-09-26
_audit_creation_method            'Materials Studio'
_symmetry_space_group_name_H-M    'P1'
_symmetry_Int_Tables_number       1
_symmetry_cell_setting            triclinic
loop_
_symmetry_equiv_pos_as_xyz
  x,y,z
_cell_length_a                    15.4149
_cell_length_b                    15.4149
_cell_length_c                    25.9000
_cell_angle_alpha                 90.0000
_cell_angle_beta                  90.0000
_cell_angle_gamma                 90.0000
loop_
_atom_site_label
_atom_site_type_symbol
_atom_site_fract_x
_atom_site_fract_y
_atom_site_fract_z
_atom_site_U_iso_or_equiv
_atom_site_adp_type
_atom_site_occupancy
Ce1    Ce    0.43695   0.56195   0.05261   0.00000  Uiso   1.00
Ce2    Ce    0.18695   0.81195   0.05261   0.00000  Uiso   1.00
Ce3    Ce    0.18695   0.56195   0.05261   0.00000  Uiso   1.00
Ce4    Ce    0.43695   0.81195   0.05261   0.00000  Uiso   1.00
Ce5    Ce    0.93695   0.56195   0.05261   0.00000  Uiso   1.00
Ce6    Ce    0.68695   0.81195   0.05261   0.00000  Uiso   1.00
Ce7    Ce    0.68695   0.56195   0.05261   0.00000  Uiso   1.00
Ce8    Ce    0.93695   0.81195   0.05261   0.00000  Uiso   1.00
Ce9    Ce    0.43695   0.06195   0.05261   0.00000  Uiso   1.00
Ce10   Ce    0.18695   0.31195   0.05261   0.00000  Uiso   1.00
Ce11   Ce    0.18695   0.06195   0.05261   0.00000  Uiso   1.00
Ce12   Ce    0.43695   0.31195   0.05261   0.00000  Uiso   1.00
Ce13   Ce    0.93695   0.06195   0.05261   0.00000  Uiso   1.00
Ce14   Ce    0.68695   0.31195   0.05261   0.00000  Uiso   1.00
Ce15   Ce    0.68695   0.06195   0.05261   0.00000  Uiso   1.00
Ce16   Ce    0.93695   0.31195   0.05261   0.00000  Uiso   1.00
Ce17   Ce    0.31195   0.68695   0.15782   0.00000  Uiso   1.00
Ce18   Ce    0.06195   0.93695   0.15782   0.00000  Uiso   1.00
Ce19   Ce    0.06195   0.68695   0.15782   0.00000  Uiso   1.00
Ce20   Ce    0.31195   0.93695   0.15782   0.00000  Uiso   1.00
Ce21   Ce    0.81195   0.68695   0.15782   0.00000  Uiso   1.00
Ce22   Ce    0.56195   0.93695   0.15782   0.00000  Uiso   1.00
Ce23   Ce    0.56195   0.68695   0.15782   0.00000  Uiso   1.00
Ce24   Ce    0.81195   0.93695   0.15782   0.00000  Uiso   1.00
Ce25   Ce    0.31195   0.18695   0.15782   0.00000  Uiso   1.00
Ce26   Ce    0.06195   0.43695   0.15782   0.00000  Uiso   1.00
Ce27   Ce    0.06195   0.18695   0.15782   0.00000  Uiso   1.00
Ce28   Ce    0.31195   0.43695   0.15782   0.00000  Uiso   1.00
Ce29   Ce    0.81195   0.18695   0.15782   0.00000  Uiso   1.00
Ce30   Ce    0.56195   0.43695   0.15782   0.00000  Uiso   1.00
Ce31   Ce    0.56195   0.18695   0.15782   0.00000  Uiso   1.00
Ce32   Ce    0.81195   0.43695   0.15782   0.00000  Uiso   1.00
Ce33   Ce    0.43692   0.56192   0.26716   0.00000  Uiso   1.00
Ce34   Ce    0.18692   0.81192   0.26717   0.00000  Uiso   1.00
Ce35   Ce    0.18692   0.56192   0.26716   0.00000  Uiso   1.00
Ce36   Ce    0.43692   0.81192   0.26716   0.00000  Uiso   1.00
Ce37   Ce    0.93692   0.56192   0.26716   0.00000  Uiso   1.00
Ce38   Ce    0.68692   0.81192   0.26717   0.00000  Uiso   1.00
Ce39   Ce    0.68692   0.56192   0.26716   0.00000  Uiso   1.00
Ce40   Ce    0.93692   0.81192   0.26717   0.00000  Uiso   1.00
Ce41   Ce    0.43692   0.06193   0.26716   0.00000  Uiso   1.00
Ce42   Ce    0.18692   0.31192   0.26716   0.00000  Uiso   1.00
Ce43   Ce    0.18692   0.06193   0.26716   0.00000  Uiso   1.00
Ce44   Ce    0.43692   0.31192   0.26716   0.00000  Uiso   1.00
Ce45   Ce    0.93692   0.06193   0.26716   0.00000  Uiso   1.00
Ce46   Ce    0.68692   0.31192   0.26716   0.00000  Uiso   1.00
Ce47   Ce    0.68692   0.06193   0.26716   0.00000  Uiso   1.00
Ce48   Ce    0.93692   0.31192   0.26716   0.00000  Uiso   1.00
Ce49   Ce    0.31193   0.68694   0.37630   0.00000  Uiso   1.00
Ce50   Ce    0.06193   0.93694   0.37630   0.00000  Uiso   1.00
Ce51   Ce    0.06193   0.68694   0.37630   0.00000  Uiso   1.00
Ce52   Ce    0.31193   0.93694   0.37630   0.00000  Uiso   1.00
Ce53   Ce    0.81193   0.68694   0.37630   0.00000  Uiso   1.00
Ce54   Ce    0.56193   0.93694   0.37630   0.00000  Uiso   1.00
Ce55   Ce    0.56193   0.68694   0.37630   0.00000  Uiso   1.00
Ce56   Ce    0.81193   0.93694   0.37630   0.00000  Uiso   1.00
Ce57   Ce    0.31193   0.18694   0.37630   0.00000  Uiso   1.00
Ce58   Ce    0.06193   0.43694   0.37630   0.00000  Uiso   1.00
Ce59   Ce    0.06193   0.18694   0.37629   0.00000  Uiso   1.00
Ce60   Ce    0.31193   0.43694   0.37630   0.00000  Uiso   1.00
Ce61   Ce    0.81193   0.18694   0.37629   0.00000  Uiso   1.00
Ce62   Ce    0.56193   0.43694   0.37630   0.00000  Uiso   1.00
Ce63   Ce    0.56193   0.18694   0.37630   0.00000  Uiso   1.00
Ce64   Ce    0.81193   0.43694   0.37630   0.00000  Uiso   1.00
O65    O     0.31195   0.56195   0.00000   0.00000  Uiso   1.00
O66    O     0.06195   0.81195   0.00000   0.00000  Uiso   1.00
O67    O     0.31195   0.06195   0.00000   0.00000  Uiso   1.00
O68    O     0.56195   0.56195   0.00000   0.00000  Uiso   1.00
O69    O     0.81195   0.81195   0.00000   0.00000  Uiso   1.00
O70    O     0.06195   0.31195   0.00000   0.00000  Uiso   1.00
O71    O     0.81195   0.56195   0.00000   0.00000  Uiso   1.00
O72    O     0.56195   0.81195   0.00000   0.00000  Uiso   1.00
O73    O     0.06195   0.06195   0.00000   0.00000  Uiso   1.00
O74    O     0.31195   0.31195   0.00000   0.00000  Uiso   1.00
O75    O     0.56195   0.06195   0.00000   0.00000  Uiso   1.00
O76    O     0.81195   0.31195   0.00000   0.00000  Uiso   1.00
O77    O     0.81195   0.06195   0.00000   0.00000  Uiso   1.00
O78    O     0.56195   0.31195   0.00000   0.00000  Uiso   1.00
O79    O     0.06195   0.56195   0.00000   0.00000  Uiso   1.00
O80    O     0.31195   0.81195   0.00000   0.00000  Uiso   1.00
O81    O     0.18695   0.68695   0.10521   0.00000  Uiso   1.00
O82    O     0.43695   0.93695   0.10521   0.00000  Uiso   1.00
O83    O     0.43695   0.68695   0.10521   0.00000  Uiso   1.00
O84    O     0.18695   0.93695   0.10521   0.00000  Uiso   1.00
O85    O     0.18695   0.43695   0.10521   0.00000  Uiso   1.00
O86    O     0.31195   0.56195   0.10521   0.00000  Uiso   1.00
O87    O     0.06195   0.81195   0.10521   0.00000  Uiso   1.00
O88    O     0.06195   0.56195   0.10521   0.00000  Uiso   1.00
O89    O     0.31195   0.81195   0.10521   0.00000  Uiso   1.00
O90    O     0.68695   0.68695   0.10521   0.00000  Uiso   1.00
O91    O     0.93695   0.93695   0.10521   0.00000  Uiso   1.00
O92    O     0.93695   0.68695   0.10521   0.00000  Uiso   1.00
O93    O     0.68695   0.93695   0.10521   0.00000  Uiso   1.00
O94    O     0.81195   0.56195   0.10521   0.00000  Uiso   1.00
O95    O     0.56195   0.81195   0.10521   0.00000  Uiso   1.00
O96    O     0.56195   0.56195   0.10521   0.00000  Uiso   1.00
O97    O     0.81195   0.81195   0.10521   0.00000  Uiso   1.00
O98    O     0.31195   0.06195   0.10521   0.00000  Uiso   1.00
O99    O     0.06195   0.31195   0.10521   0.00000  Uiso   1.00
O100   O     0.06195   0.06195   0.10521   0.00000  Uiso   1.00
O101   O     0.31195   0.31195   0.10521   0.00000  Uiso   1.00
O102   O     0.68695   0.18695   0.10521   0.00000  Uiso   1.00
O103   O     0.93695   0.43695   0.10521   0.00000  Uiso   1.00
O104   O     0.93695   0.18695   0.10521   0.00000  Uiso   1.00
O105   O     0.68695   0.43695   0.10521   0.00000  Uiso   1.00
O106   O     0.18695   0.18695   0.10521   0.00000  Uiso   1.00
O107   O     0.81195   0.06195   0.10521   0.00000  Uiso   1.00
O108   O     0.43695   0.43695   0.10521   0.00000  Uiso   1.00
O109   O     0.56195   0.31195   0.10521   0.00000  Uiso   1.00
O110   O     0.56195   0.06195   0.10521   0.00000  Uiso   1.00
O111   O     0.81195   0.31195   0.10521   0.00000  Uiso   1.00
O112   O     0.43695   0.18695   0.10521   0.00000  Uiso   1.00
O113   O     0.31191   0.81192   0.21433   0.00000  Uiso   1.00
O114   O     0.31191   0.56192   0.21433   0.00000  Uiso   1.00
O115   O     0.06191   0.81192   0.21433   0.00000  Uiso   1.00
O116   O     0.43692   0.68690   0.21096   0.00000  Uiso   1.00
O117   O     0.18692   0.93691   0.21096   0.00000  Uiso   1.00
O118   O     0.18692   0.68690   0.21096   0.00000  Uiso   1.00
O119   O     0.43692   0.93690   0.21096   0.00000  Uiso   1.00
O120   O     0.56191   0.56192   0.21433   0.00000  Uiso   1.00
O121   O     0.81192   0.81192   0.21433   0.00000  Uiso   1.00
O122   O     0.81192   0.56192   0.21433   0.00000  Uiso   1.00
O123   O     0.31191   0.06192   0.21433   0.00000  Uiso   1.00
O124   O     0.56191   0.81192   0.21433   0.00000  Uiso   1.00
O125   O     0.93692   0.68690   0.21097   0.00000  Uiso   1.00
O126   O     0.68693   0.93690   0.21097   0.00000  Uiso   1.00
O127   O     0.06191   0.31192   0.21433   0.00000  Uiso   1.00
O128   O     0.68692   0.68690   0.21096   0.00000  Uiso   1.00
O129   O     0.93692   0.93691   0.21096   0.00000  Uiso   1.00
O130   O     0.43692   0.18690   0.21097   0.00000  Uiso   1.00
O131   O     0.18692   0.43690   0.21096   0.00000  Uiso   1.00
O132   O     0.18692   0.18691   0.21096   0.00000  Uiso   1.00
O133   O     0.43692   0.43690   0.21097   0.00000  Uiso   1.00
O134   O     0.06191   0.06192   0.21433   0.00000  Uiso   1.00
O135   O     0.31191   0.31192   0.21433   0.00000  Uiso   1.00
O136   O     0.56192   0.06192   0.21433   0.00000  Uiso   1.00
O137   O     0.81191   0.31192   0.21433   0.00000  Uiso   1.00
O138   O     0.81191   0.06192   0.21433   0.00000  Uiso   1.00
O139   O     0.56192   0.31192   0.21433   0.00000  Uiso   1.00
O140   O     0.93692   0.18691   0.21096   0.00000  Uiso   1.00
O141   O     0.68693   0.43690   0.21097   0.00000  Uiso   1.00
O142   O     0.68693   0.18690   0.21097   0.00000  Uiso   1.00
O143   O     0.93692   0.43690   0.21097   0.00000  Uiso   1.00
O144   O     0.06191   0.56192   0.21433   0.00000  Uiso   1.00
O145   O     0.18695   0.68695   0.31685   0.00000  Uiso   1.00
O146   O     0.43695   0.93695   0.31685   0.00000  Uiso   1.00
O147   O     0.43695   0.68695   0.31685   0.00000  Uiso   1.00
O148   O     0.18695   0.93695   0.31685   0.00000  Uiso   1.00
O149   O     0.31189   0.56191   0.32731   0.00000  Uiso   1.00
O150   O     0.43695   0.18695   0.31685   0.00000  Uiso   1.00
O151   O     0.06189   0.81191   0.32730   0.00000  Uiso   1.00
O152   O     0.06189   0.56190   0.32730   0.00000  Uiso   1.00
O153   O     0.31189   0.81191   0.32731   0.00000  Uiso   1.00
O154   O     0.18695   0.43695   0.31685   0.00000  Uiso   1.00
O155   O     0.68696   0.68695   0.31685   0.00000  Uiso   1.00
O156   O     0.93695   0.93695   0.31685   0.00000  Uiso   1.00
O157   O     0.93695   0.68695   0.31685   0.00000  Uiso   1.00
O158   O     0.68695   0.93695   0.31685   0.00000  Uiso   1.00
O159   O     0.81190   0.56191   0.32731   0.00000  Uiso   1.00
O160   O     0.56190   0.81190   0.32730   0.00000  Uiso   1.00
O161   O     0.56190   0.56191   0.32731   0.00000  Uiso   1.00
O162   O     0.81190   0.81191   0.32731   0.00000  Uiso   1.00
O163   O     0.31189   0.06191   0.32730   0.00000  Uiso   1.00
O164   O     0.06189   0.31191   0.32731   0.00000  Uiso   1.00
O165   O     0.06189   0.06190   0.32730   0.00000  Uiso   1.00
O166   O     0.31189   0.31190   0.32731   0.00000  Uiso   1.00
O167   O     0.68696   0.18695   0.31685   0.00000  Uiso   1.00
O168   O     0.93695   0.43695   0.31685   0.00000  Uiso   1.00
O169   O     0.93695   0.18695   0.31685   0.00000  Uiso   1.00
O170   O     0.68695   0.43695   0.31685   0.00000  Uiso   1.00
O171   O     0.81190   0.06190   0.32730   0.00000  Uiso   1.00
O172   O     0.56190   0.31191   0.32731   0.00000  Uiso   1.00
O173   O     0.56190   0.06190   0.32730   0.00000  Uiso   1.00
O174   O     0.81190   0.31190   0.32731   0.00000  Uiso   1.00
O175   O     0.18695   0.18695   0.31685   0.00000  Uiso   1.00
O176   O     0.43695   0.43695   0.31685   0.00000  Uiso   1.00
O177   O     0.43696   0.68694   0.41932   0.00000  Uiso   1.00
O178   O     0.18696   0.93694   0.41932   0.00000  Uiso   1.00
O179   O     0.18696   0.68694   0.41932   0.00000  Uiso   1.00
O180   O     0.43697   0.93694   0.41932   0.00000  Uiso   1.00
O181   O     0.93697   0.68694   0.41932   0.00000  Uiso   1.00
O182   O     0.68697   0.93694   0.41932   0.00000  Uiso   1.00
O183   O     0.68697   0.68694   0.41932   0.00000  Uiso   1.00
O184   O     0.93697   0.93694   0.41932   0.00000  Uiso   1.00
O185   O     0.43696   0.18694   0.41931   0.00000  Uiso   1.00
O186   O     0.18696   0.43695   0.41932   0.00000  Uiso   1.00
O187   O     0.18696   0.18694   0.41932   0.00000  Uiso   1.00
O188   O     0.43697   0.43695   0.41932   0.00000  Uiso   1.00
O189   O     0.93697   0.18694   0.41932   0.00000  Uiso   1.00
O190   O     0.68697   0.43694   0.41932   0.00000  Uiso   1.00
O191   O     0.68697   0.18694   0.41932   0.00000  Uiso   1.00
O192   O     0.93697   0.43695   0.41932   0.00000  Uiso   1.00
C1     C     0.48204   0.56307   0.42397   0.00000  Uiso   1.00
C2     C     0.39566   0.56305   0.42428   0.00000  Uiso   1.00
Cl3    Cl    0.33475   0.56135   0.48030   0.00000  Uiso   1.00
H4     H     0.35573   0.56412   0.38952   0.00000  Uiso   1.00
H5     H     0.51666   0.56419   0.38724   0.00000  Uiso   1.00
H6     H     0.51969   0.56198   0.45961   0.00000  Uiso   1.00
loop_
_geom_bond_atom_site_label_1
_geom_bond_atom_site_label_2
_geom_bond_distance
_geom_bond_site_symmetry_2
_ccdc_geom_bond_type
Ce1    O65     2.360   .     S
Ce1    O68     2.360   .     S
Ce1    O83     2.360   .     S
Ce1    O86     2.360   .     S
Ce1    O96     2.360   .     S
Ce1    O108    2.360   .     S
Ce2    O66     2.360   .     S
Ce2    O80     2.360   .     S
Ce2    O81     2.360   .     S
Ce2    O84     2.360   .     S
Ce2    O87     2.360   .     S
Ce2    O89     2.360   .     S
Ce3    O65     2.360   .     S
Ce3    O79     2.360   .     S
Ce3    O81     2.360   .     S
Ce3    O85     2.360   .     S
Ce3    O86     2.360   .     S
Ce3    O88     2.360   .     S
Ce4    O72     2.360   .     S
Ce4    O80     2.360   .     S
Ce4    O82     2.360   .     S
Ce4    O83     2.360   .     S
Ce4    O89     2.360   .     S
Ce4    O95     2.360   .     S
Ce5    O71     2.360   .     S
Ce5    O92     2.360   .     S
Ce5    O94     2.360   .     S
Ce5    O103    2.360   .     S
Ce6    O69     2.360   .     S
Ce6    O72     2.360   .     S
Ce6    O90     2.360   .     S
Ce6    O93     2.360   .     S
Ce6    O95     2.360   .     S
Ce6    O97     2.360   .     S
Ce7    O68     2.360   .     S
Ce7    O71     2.360   .     S
Ce7    O90     2.360   .     S
Ce7    O94     2.360   .     S
Ce7    O96     2.360   .     S
Ce7    O105    2.360   .     S
Ce8    O69     2.360   .     S
Ce8    O91     2.360   .     S
Ce8    O92     2.360   .     S
Ce8    O97     2.360   .     S
Ce9    O67     2.360   .     S
Ce9    O75     2.360   .     S
Ce9    O98     2.360   .     S
Ce9    O110    2.360   .     S
Ce9    O112    2.360   .     S
Ce10   O70     2.360   .     S
Ce10   O74     2.360   .     S
Ce10   O85     2.360   .     S
Ce10   O99     2.360   .     S
Ce10   O101    2.360   .     S
Ce10   O106    2.360   .     S
Ce11   O67     2.360   .     S
Ce11   O73     2.360   .     S
Ce11   O98     2.360   .     S
Ce11   O100    2.360   .     S
Ce11   O106    2.360   .     S
Ce12   O74     2.360   .     S
Ce12   O78     2.360   .     S
Ce12   O101    2.360   .     S
Ce12   O108    2.360   .     S
Ce12   O109    2.360   .     S
Ce12   O112    2.360   .     S
Ce13   O77     2.360   .     S
Ce13   O104    2.360   .     S
Ce13   O107    2.360   .     S
Ce14   O76     2.360   .     S
Ce14   O78     2.360   .     S
Ce14   O102    2.360   .     S
Ce14   O105    2.360   .     S
Ce14   O109    2.360   .     S
Ce14   O111    2.360   .     S
Ce15   O75     2.360   .     S
Ce15   O77     2.360   .     S
Ce15   O102    2.360   .     S
Ce15   O107    2.360   .     S
Ce15   O110    2.360   .     S
Ce16   O76     2.360   .     S
Ce16   O103    2.360   .     S
Ce16   O104    2.360   .     S
Ce16   O111    2.360   .     S
Ce17   O81     2.360   .     S
Ce17   O83     2.360   .     S
Ce17   O86     2.360   .     S
Ce17   O89     2.360   .     S
Ce17   O113    2.419   .     S
Ce17   O114    2.420   .     S
Ce17   O116    2.368   .     S
Ce17   O118    2.368   .     S
Ce18   O84     2.360   .     S
Ce18   O87     2.360   .     S
Ce18   O115    2.420   .     S
Ce18   O117    2.368   .     S
Ce19   O81     2.360   .     S
Ce19   O87     2.360   .     S
Ce19   O88     2.360   .     S
Ce19   O115    2.419   .     S
Ce19   O118    2.368   .     S
Ce19   O144    2.420   .     S
Ce20   O82     2.360   .     S
Ce20   O84     2.360   .     S
Ce20   O89     2.360   .     S
Ce20   O113    2.420   .     S
Ce20   O117    2.368   .     S
Ce20   O119    2.368   .     S
Ce21   O90     2.360   .     S
Ce21   O92     2.360   .     S
Ce21   O94     2.360   .     S
Ce21   O97     2.360   .     S
Ce21   O121    2.419   .     S
Ce21   O122    2.420   .     S
Ce21   O125    2.368   .     S
Ce21   O128    2.368   .     S
Ce22   O82     2.360   .     S
Ce22   O93     2.360   .     S
Ce22   O95     2.360   .     S
Ce22   O119    2.368   .     S
Ce22   O124    2.420   .     S
Ce22   O126    2.368   .     S
Ce23   O83     2.360   .     S
Ce23   O90     2.360   .     S
Ce23   O95     2.360   .     S
Ce23   O96     2.360   .     S
Ce23   O116    2.368   .     S
Ce23   O120    2.420   .     S
Ce23   O124    2.419   .     S
Ce23   O128    2.368   .     S
Ce24   O91     2.360   .     S
Ce24   O93     2.360   .     S
Ce24   O97     2.360   .     S
Ce24   O121    2.420   .     S
Ce24   O126    2.368   .     S
Ce24   O129    2.368   .     S
Ce25   O98     2.360   .     S
Ce25   O101    2.360   .     S
Ce25   O106    2.360   .     S
Ce25   O112    2.360   .     S
Ce25   O123    2.420   .     S
Ce25   O130    2.368   .     S
Ce25   O132    2.368   .     S
Ce25   O135    2.419   .     S
Ce26   O85     2.360   .     S
Ce26   O88     2.360   .     S
Ce26   O99     2.360   .     S
Ce26   O127    2.420   .     S
Ce26   O131    2.368   .     S
Ce26   O144    2.419   .     S
Ce27   O99     2.360   .     S
Ce27   O100    2.360   .     S
Ce27   O106    2.360   .     S
Ce27   O127    2.419   .     S
Ce27   O132    2.368   .     S
Ce27   O134    2.420   .     S
Ce28   O85     2.360   .     S
Ce28   O86     2.360   .     S
Ce28   O101    2.360   .     S
Ce28   O108    2.360   .     S
Ce28   O114    2.419   .     S
Ce28   O131    2.368   .     S
Ce28   O133    2.368   .     S
Ce28   O135    2.420   .     S
Ce29   O102    2.360   .     S
Ce29   O104    2.360   .     S
Ce29   O107    2.360   .     S
Ce29   O111    2.360   .     S
Ce29   O137    2.419   .     S
Ce29   O138    2.420   .     S
Ce29   O140    2.368   .     S
Ce29   O142    2.368   .     S
Ce30   O96     2.360   .     S
Ce30   O105    2.360   .     S
Ce30   O108    2.360   .     S
Ce30   O109    2.360   .     S
Ce30   O120    2.419   .     S
Ce30   O133    2.368   .     S
Ce30   O139    2.420   .     S
Ce30   O141    2.368   .     S
Ce31   O102    2.360   .     S
Ce31   O109    2.360   .     S
Ce31   O110    2.360   .     S
Ce31   O112    2.360   .     S
Ce31   O130    2.368   .     S
Ce31   O136    2.420   .     S
Ce31   O139    2.419   .     S
Ce31   O142    2.368   .     S
Ce32   O94     2.360   .     S
Ce32   O103    2.360   .     S
Ce32   O105    2.360   .     S
Ce32   O111    2.360   .     S
Ce32   O122    2.419   .     S
Ce32   O137    2.420   .     S
Ce32   O141    2.368   .     S
Ce32   O143    2.368   .     S
Ce33   O114    2.363   .     S
Ce33   O116    2.415   .     S
Ce33   O120    2.363   .     S
Ce33   O133    2.415   .     S
Ce33   O147    2.318   .     S
Ce33   O176    2.317   .     S
Ce33   O149    2.478   .     S
Ce33   O161    2.478   .     S
Ce34   O113    2.363   .     S
Ce34   O115    2.364   .     S
Ce34   O117    2.415   .     S
Ce34   O118    2.415   .     S
Ce34   O145    2.317   .     S
Ce34   O148    2.317   .     S
Ce34   O151    2.478   .     S
Ce34   O153    2.477   .     S
Ce35   O114    2.363   .     S
Ce35   O118    2.415   .     S
Ce35   O131    2.415   .     S
Ce35   O144    2.363   .     S
Ce35   O145    2.318   .     S
Ce35   O154    2.317   .     S
Ce35   O149    2.477   .     S
Ce35   O152    2.478   .     S
Ce36   O113    2.363   .     S
Ce36   O116    2.415   .     S
Ce36   O119    2.415   .     S
Ce36   O124    2.363   .     S
Ce36   O146    2.317   .     S
Ce36   O147    2.317   .     S
Ce36   O153    2.478   .     S
Ce36   O160    2.477   .     S
Ce37   O122    2.363   .     S
Ce37   O125    2.415   .     S
Ce37   O143    2.415   .     S
Ce37   O157    2.318   .     S
Ce37   O168    2.317   .     S
Ce37   O159    2.478   .     S
Ce38   O121    2.363   .     S
Ce38   O124    2.363   .     S
Ce38   O126    2.415   .     S
Ce38   O128    2.415   .     S
Ce38   O155    2.317   .     S
Ce38   O158    2.317   .     S
Ce38   O160    2.478   .     S
Ce38   O162    2.477   .     S
Ce39   O120    2.363   .     S
Ce39   O122    2.363   .     S
Ce39   O128    2.415   .     S
Ce39   O141    2.415   .     S
Ce39   O155    2.318   .     S
Ce39   O170    2.317   .     S
Ce39   O159    2.478   .     S
Ce39   O161    2.478   .     S
Ce40   O121    2.363   .     S
Ce40   O125    2.415   .     S
Ce40   O129    2.415   .     S
Ce40   O156    2.317   .     S
Ce40   O157    2.317   .     S
Ce40   O162    2.478   .     S
Ce41   O123    2.363   .     S
Ce41   O130    2.415   .     S
Ce41   O136    2.363   .     S
Ce41   O150    2.317   .     S
Ce41   O163    2.478   .     S
Ce41   O173    2.477   .     S
Ce42   O127    2.363   .     S
Ce42   O131    2.415   .     S
Ce42   O132    2.415   .     S
Ce42   O135    2.363   .     S
Ce42   O154    2.317   .     S
Ce42   O175    2.317   .     S
Ce42   O164    2.478   .     S
Ce42   O166    2.477   .     S
Ce43   O123    2.363   .     S
Ce43   O132    2.415   .     S
Ce43   O134    2.363   .     S
Ce43   O175    2.317   .     S
Ce43   O163    2.477   .     S
Ce43   O165    2.478   .     S
Ce44   O130    2.415   .     S
Ce44   O133    2.415   .     S
Ce44   O135    2.363   .     S
Ce44   O139    2.363   .     S
Ce44   O150    2.317   .     S
Ce44   O176    2.318   .     S
Ce44   O166    2.478   .     S
Ce44   O172    2.478   .     S
Ce45   O138    2.363   .     S
Ce45   O140    2.415   .     S
Ce45   O169    2.317   .     S
Ce45   O171    2.478   .     S
Ce46   O137    2.363   .     S
Ce46   O139    2.363   .     S
Ce46   O141    2.415   .     S
Ce46   O142    2.415   .     S
Ce46   O167    2.317   .     S
Ce46   O170    2.317   .     S
Ce46   O172    2.478   .     S
Ce46   O174    2.478   .     S
Ce47   O136    2.363   .     S
Ce47   O138    2.363   .     S
Ce47   O142    2.415   .     S
Ce47   O167    2.317   .     S
Ce47   O171    2.477   .     S
Ce47   O173    2.478   .     S
Ce48   O137    2.363   .     S
Ce48   O140    2.415   .     S
Ce48   O143    2.415   .     S
Ce48   O168    2.317   .     S
Ce48   O169    2.317   .     S
Ce48   O174    2.478   .     S
Ce49   O149    2.308   .     S
Ce49   O153    2.307   .     S
Ce49   O177    2.226   .     S
Ce49   O179    2.225   .     S
Ce49   O145    2.466   .     S
Ce49   O147    2.467   .     S
Ce49   C2      2.619   .     S
Ce49   H4      2.039   .     S
Ce50   O151    2.308   .     S
Ce50   O178    2.226   .     S
Ce50   O148    2.467   .     S
Ce51   O151    2.307   .     S
Ce51   O152    2.308   .     S
Ce51   O179    2.226   .     S
Ce51   O145    2.467   .     S
Ce52   O153    2.308   .     S
Ce52   O178    2.225   .     S
Ce52   O180    2.226   .     S
Ce52   O146    2.467   .     S
Ce52   O148    2.466   .     S
Ce53   O159    2.308   .     S
Ce53   O162    2.307   .     S
Ce53   O181    2.226   .     S
Ce53   O183    2.225   .     S
Ce53   O155    2.466   .     S
Ce53   O157    2.467   .     S
Ce54   O160    2.308   .     S
Ce54   O180    2.225   .     S
Ce54   O182    2.226   .     S
Ce54   O146    2.466   .     S
Ce54   O158    2.467   .     S
Ce55   O160    2.307   .     S
Ce55   O161    2.308   .     S
Ce55   O177    2.225   .     S
Ce55   O183    2.226   .     S
Ce55   O147    2.466   .     S
Ce55   O155    2.467   .     S
Ce55   C1      2.586   .     S
Ce55   H5      2.037   .     S
Ce56   O162    2.308   .     S
Ce56   O182    2.225   .     S
Ce56   O184    2.226   .     S
Ce56   O156    2.467   .     S
Ce56   O158    2.466   .     S
Ce57   O163    2.308   .     S
Ce57   O166    2.307   .     S
Ce57   O185    2.226   .     S
Ce57   O187    2.225   .     S
Ce57   O150    2.467   .     S
Ce57   O175    2.466   .     S
Ce58   O152    2.307   .     S
Ce58   O164    2.308   .     S
Ce58   O186    2.226   .     S
Ce58   O154    2.467   .     S
Ce59   O164    2.307   .     S
Ce59   O165    2.308   .     S
Ce59   O187    2.226   .     S
Ce59   O175    2.467   .     S
Ce60   O149    2.307   .     S
Ce60   O166    2.308   .     S
Ce60   O186    2.225   .     S
Ce60   O188    2.226   .     S
Ce60   O154    2.466   .     S
Ce60   O176    2.467   .     S
Ce60   C2      2.644   .     S
Ce60   H4      2.102   .     S
Ce61   O171    2.308   .     S
Ce61   O174    2.307   .     S
Ce61   O189    2.226   .     S
Ce61   O191    2.225   .     S
Ce61   O167    2.466   .     S
Ce61   O169    2.467   .     S
Ce62   O161    2.307   .     S
Ce62   O172    2.308   .     S
Ce62   O188    2.225   .     S
Ce62   O190    2.226   .     S
Ce62   O170    2.467   .     S
Ce62   O176    2.466   .     S
Ce62   C1      2.612   .     S
Ce62   H5      2.101   .     S
Ce63   O172    2.307   .     S
Ce63   O173    2.308   .     S
Ce63   O185    2.225   .     S
Ce63   O191    2.226   .     S
Ce63   O150    2.466   .     S
Ce63   O167    2.467   .     S
Ce64   O159    2.307   .     S
Ce64   O174    2.308   .     S
Ce64   O190    2.225   .     S
Ce64   O192    2.226   .     S
Ce64   O168    2.467   .     S
Ce64   O170    2.466   .     S
C1     C2      1.331   .     D
C1     H5      1.091   .     S
C1     H6      1.090   .     S
C2     Cl3     1.729   .     S
C2     H4      1.091   .     S
